<?xml version="1.0" encoding="UTF-8"?>

<!-- generated on Mon Nov 12 14:33:54 2018 by Eclipse SUMO Version v1_0_1+0617-70ae16b
This data file and the accompanying materials
are made available under the terms of the Eclipse Public License v2.0
which accompanies this distribution, and is available at
http://www.eclipse.org/legal/epl-v20.html
SPDX-License-Identifier: EPL-2.0
<configuration xmlns:xsi="http://www.w3.org/2001/XMLSchema-instance" xsi:noNamespaceSchemaLocation="http://sumo.dlr.de/xsd/sumoConfiguration.xsd">

    <input>
        <net-file value="net.net.xml"/>
        <route-files value="input_routes.rou.xml"/>
    </input>

    <output>
        <write-license value="true"/>
        <lanechange-output value="lanechanges.xml"/>
    </output>

    <processing>
        <default.speeddev value="0"/>
    </processing>

    <report>
        <xml-validation value="never"/>
        <no-step-log value="true"/>
    </report>

</configuration>
-->

<lanechanges>
    <change id="overtaking" type="DEFAULT_VEHTYPE" time="137.00" from="VODUGES_beg_0" to="-VODUGES_beg_0" dir="1" speed="2.49" pos="855.06" reason="speedGain" leaderGap="None" leaderSecureGap="None" followerGap="None" followerSecureGap="None" origLeaderGap="3.37" origLeaderSecureGap="2.49"/>
    <change id="overtaking" type="DEFAULT_VEHTYPE" time="189.00" from="-VODUGES_beg_0" to="VODUGES_beg_0" dir="-1" speed="13.11" pos="480.00" reason="keepRight" leaderGap="20.37" leaderSecureGap="11.33" followerGap="68.14" followerSecureGap="12.66" origLeaderGap="None" origLeaderSecureGap="None"/>
</lanechanges>
