<?xml version="1.0" encoding="UTF-8"?>

<!-- generated on Mon Nov 12 14:33:17 2018 by Eclipse SUMO Version v1_0_1+0617-70ae16b
This data file and the accompanying materials
are made available under the terms of the Eclipse Public License v2.0
which accompanies this distribution, and is available at
http://www.eclipse.org/legal/epl-v20.html
SPDX-License-Identifier: EPL-2.0
<configuration xmlns:xsi="http://www.w3.org/2001/XMLSchema-instance" xsi:noNamespaceSchemaLocation="http://sumo.dlr.de/xsd/sumoConfiguration.xsd">

    <input>
        <net-file value="net.net.xml"/>
        <route-files value="input_routes.rou.xml"/>
        <additional-files value="input_additional.add.xml"/>
    </input>

    <output>
        <write-license value="true"/>
    </output>

    <time>
        <begin value="0"/>
        <end value="1000"/>
    </time>

    <processing>
        <default.speeddev value="0"/>
    </processing>

    <report>
        <xml-validation value="never"/>
        <duration-log.disable value="true"/>
        <no-step-log value="true"/>
    </report>

</configuration>
-->

<linkData xmlns:xsi="http://www.w3.org/2001/XMLSchema-instance" xsi:noNamespaceSchemaLocation="http://sumo.dlr.de/xsd/amitran/linkdata.xsd">
    <timeSlice startTime="0" duration="300000">
        <link id="32" amount="31" averageSpeed="972">
            <actorConfig id="0" amount="31" averageSpeed="972"/>
        </link>
        <link id="33" amount="12" averageSpeed="1042">
            <actorConfig id="0" amount="12" averageSpeed="1042"/>
        </link>
        <link id="34" amount="21" averageSpeed="586">
            <actorConfig id="0" amount="21" averageSpeed="586"/>
        </link>
        <link id="35" amount="29" averageSpeed="975">
            <actorConfig id="0" amount="29" averageSpeed="975"/>
        </link>
        <link id="36" amount="20" averageSpeed="1037">
            <actorConfig id="0" amount="20" averageSpeed="1037"/>
        </link>
        <link id="37" amount="25" averageSpeed="666">
            <actorConfig id="0" amount="25" averageSpeed="666"/>
        </link>
        <link id="38" amount="40" averageSpeed="952">
            <actorConfig id="0" amount="40" averageSpeed="952"/>
        </link>
        <link id="39" amount="6" averageSpeed="1043">
            <actorConfig id="0" amount="6" averageSpeed="1043"/>
        </link>
        <link id="40" amount="36" averageSpeed="641">
            <actorConfig id="0" amount="36" averageSpeed="641"/>
        </link>
        <link id="41" amount="13" averageSpeed="1048">
            <actorConfig id="0" amount="13" averageSpeed="1048"/>
        </link>
        <link id="42" amount="25" averageSpeed="1040">
            <actorConfig id="0" amount="25" averageSpeed="1040"/>
        </link>
        <link id="43" amount="11" averageSpeed="740">
            <actorConfig id="0" amount="11" averageSpeed="740"/>
        </link>
    </timeSlice>
    <timeSlice startTime="300000" duration="300000">
        <link id="32" amount="69" averageSpeed="996">
            <actorConfig id="0" amount="69" averageSpeed="1005"/>
        </link>
        <link id="33" amount="53" averageSpeed="1038">
            <actorConfig id="0" amount="53" averageSpeed="1037"/>
        </link>
        <link id="34" amount="72" averageSpeed="366">
            <actorConfig id="0" amount="72" averageSpeed="329"/>
        </link>
        <link id="35" amount="104" averageSpeed="1006">
            <actorConfig id="0" amount="104" averageSpeed="1014"/>
        </link>
        <link id="36" amount="79" averageSpeed="1037">
            <actorConfig id="0" amount="79" averageSpeed="1037"/>
        </link>
        <link id="37" amount="72" averageSpeed="496">
            <actorConfig id="0" amount="72" averageSpeed="458"/>
        </link>
        <link id="38" amount="93" averageSpeed="972">
            <actorConfig id="0" amount="93" averageSpeed="981"/>
        </link>
        <link id="39" amount="40" averageSpeed="1038">
            <actorConfig id="0" amount="40" averageSpeed="1038"/>
        </link>
        <link id="40" amount="64" averageSpeed="554">
            <actorConfig id="0" amount="64" averageSpeed="517"/>
        </link>
        <link id="41" amount="75" averageSpeed="1043">
            <actorConfig id="0" amount="75" averageSpeed="1042"/>
        </link>
        <link id="42" amount="73" averageSpeed="1038">
            <actorConfig id="0" amount="73" averageSpeed="1038"/>
        </link>
        <link id="43" amount="69" averageSpeed="601">
            <actorConfig id="0" amount="69" averageSpeed="583"/>
        </link>
    </timeSlice>
    <timeSlice startTime="600000" duration="300000">
        <link id="32" amount="108" averageSpeed="1005">
            <actorConfig id="0" amount="108" averageSpeed="1013"/>
        </link>
        <link id="33" amount="73" averageSpeed="1036">
            <actorConfig id="0" amount="73" averageSpeed="1035"/>
        </link>
        <link id="34" amount="90" averageSpeed="269">
            <actorConfig id="0" amount="90" averageSpeed="210"/>
        </link>
        <link id="35" amount="105" averageSpeed="1008">
            <actorConfig id="0" amount="105" averageSpeed="1011"/>
        </link>
        <link id="36" amount="68" averageSpeed="1036">
            <actorConfig id="0" amount="68" averageSpeed="1035"/>
        </link>
        <link id="37" amount="76" averageSpeed="477">
            <actorConfig id="0" amount="76" averageSpeed="455"/>
        </link>
        <link id="38" amount="121" averageSpeed="987">
            <actorConfig id="0" amount="121" averageSpeed="1003"/>
        </link>
        <link id="39" amount="76" averageSpeed="1038">
            <actorConfig id="0" amount="76" averageSpeed="1038"/>
        </link>
        <link id="40" amount="65" averageSpeed="515">
            <actorConfig id="0" amount="65" averageSpeed="467"/>
        </link>
        <link id="41" amount="72" averageSpeed="1043">
            <actorConfig id="0" amount="72" averageSpeed="1043"/>
        </link>
        <link id="42" amount="76" averageSpeed="1038">
            <actorConfig id="0" amount="76" averageSpeed="1038"/>
        </link>
        <link id="43" amount="78" averageSpeed="549">
            <actorConfig id="0" amount="78" averageSpeed="504"/>
        </link>
    </timeSlice>
    <timeSlice startTime="900000" duration="100000">
        <link id="32" amount="36" averageSpeed="959">
            <actorConfig id="0" amount="36" averageSpeed="755"/>
        </link>
        <link id="33" amount="27" averageSpeed="1036">
            <actorConfig id="0" amount="27" averageSpeed="1037"/>
        </link>
        <link id="34" amount="20" averageSpeed="248">
            <actorConfig id="0" amount="20" averageSpeed="157"/>
        </link>
        <link id="35" amount="34" averageSpeed="1009">
            <actorConfig id="0" amount="34" averageSpeed="1015"/>
        </link>
        <link id="36" amount="26" averageSpeed="1037">
            <actorConfig id="0" amount="26" averageSpeed="1041"/>
        </link>
        <link id="37" amount="24" averageSpeed="480">
            <actorConfig id="0" amount="24" averageSpeed="501"/>
        </link>
        <link id="38" amount="38" averageSpeed="988">
            <actorConfig id="0" amount="38" averageSpeed="999"/>
        </link>
        <link id="39" amount="24" averageSpeed="1038">
            <actorConfig id="0" amount="24" averageSpeed="1041"/>
        </link>
        <link id="40" amount="22" averageSpeed="513">
            <actorConfig id="0" amount="22" averageSpeed="499"/>
        </link>
        <link id="41" amount="23" averageSpeed="1043">
            <actorConfig id="0" amount="23" averageSpeed="1045"/>
        </link>
        <link id="42" amount="22" averageSpeed="1038">
            <actorConfig id="0" amount="22" averageSpeed="1037"/>
        </link>
        <link id="43" amount="22" averageSpeed="535">
            <actorConfig id="0" amount="22" averageSpeed="460"/>
        </link>
    </timeSlice>
</linkData>
