<?xml version="1.0" encoding="UTF-8"?>

<!-- generated on Mon Nov 12 14:33:54 2018 by Eclipse SUMO Version v1_0_1+0617-70ae16b
This data file and the accompanying materials
are made available under the terms of the Eclipse Public License v2.0
which accompanies this distribution, and is available at
http://www.eclipse.org/legal/epl-v20.html
SPDX-License-Identifier: EPL-2.0
<configuration xmlns:xsi="http://www.w3.org/2001/XMLSchema-instance" xsi:noNamespaceSchemaLocation="http://sumo.dlr.de/xsd/sumoConfiguration.xsd">

    <input>
        <net-file value="net.net.xml"/>
        <route-files value="input_routes.rou.xml"/>
    </input>

    <output>
        <write-license value="true"/>
        <lanechange-output value="lanechanges.xml"/>
    </output>

    <processing>
        <default.speeddev value="0"/>
    </processing>

    <report>
        <xml-validation value="never"/>
        <no-step-log value="true"/>
    </report>

</configuration>
-->

<lanechanges>
    <change id="overtaking" type="emergency" time="24.00" from="WC_0" to="CW_0" dir="1" speed="0.00" pos="57.64" reason="speedGain" leaderGap="None" leaderSecureGap="None" followerGap="None" followerSecureGap="None" origLeaderGap="2.50" origLeaderSecureGap="0.00"/>
    <change id="overtaking" type="emergency" time="30.00" from=":C_4_0" to=":C_10_0" dir="-1" speed="12.08" pos="4.59" reason="strategic|urgent" leaderGap="None" leaderSecureGap="None" followerGap="2.50" followerSecureGap="0.00" origLeaderGap="None" origLeaderSecureGap="None"/>
</lanechanges>
